Version 4
SHEET 1 1828 680
WIRE 864 -272 240 -272
WIRE 1728 -272 944 -272
WIRE 1200 -192 1104 -192
WIRE 1200 -160 1200 -192
WIRE 704 -80 528 -80
WIRE 928 -80 704 -80
WIRE 1104 -80 1104 -112
WIRE 1104 -80 928 -80
WIRE 1328 -80 1104 -80
WIRE 1504 -80 1328 -80
WIRE 528 -48 528 -80
WIRE 704 -48 704 -80
WIRE 928 -48 928 -80
WIRE 1104 -48 1104 -80
WIRE 1328 -48 1328 -80
WIRE 1504 -48 1504 -80
WIRE 704 32 608 32
WIRE 800 32 704 32
WIRE 880 32 864 32
WIRE 1104 32 1008 32
WIRE 1200 32 1104 32
WIRE 1280 32 1264 32
WIRE 1504 32 1408 32
WIRE 1600 32 1504 32
WIRE 1728 32 1728 -272
WIRE 1728 32 1664 32
WIRE 1824 32 1728 32
WIRE 704 48 704 32
WIRE 1104 48 1104 32
WIRE 1504 48 1504 32
WIRE 96 96 -16 96
WIRE 240 96 240 -272
WIRE 240 96 176 96
WIRE 464 96 240 96
WIRE 528 96 528 32
WIRE 608 96 528 96
WIRE 640 96 608 96
WIRE 880 96 880 32
WIRE 928 96 928 32
WIRE 928 96 880 96
WIRE 1008 96 928 96
WIRE 1040 96 1008 96
WIRE 1280 96 1280 32
WIRE 1328 96 1328 32
WIRE 1328 96 1280 96
WIRE 1408 96 1328 96
WIRE 1440 96 1408 96
WIRE -16 160 -16 96
WIRE 240 192 240 96
WIRE 528 192 528 96
WIRE 704 192 704 144
WIRE 928 192 928 96
WIRE 1104 192 1104 144
WIRE 1328 192 1328 96
WIRE 1504 192 1504 144
WIRE 1728 192 1728 32
WIRE -16 320 -16 240
WIRE 160 320 -16 320
WIRE 240 320 240 272
WIRE 240 320 160 320
WIRE 528 320 528 272
WIRE 528 320 240 320
WIRE 704 320 704 272
WIRE 704 320 528 320
WIRE 928 320 928 272
WIRE 928 320 704 320
WIRE 1104 320 1104 272
WIRE 1104 320 928 320
WIRE 1328 320 1328 272
WIRE 1328 320 1104 320
WIRE 1504 320 1504 272
WIRE 1504 320 1328 320
WIRE 1712 320 1504 320
WIRE 1728 320 1728 272
WIRE 1728 320 1712 320
FLAG 1200 -160 0
FLAG 1712 320 0
FLAG 160 320 0
SYMBOL voltage -16 144 R0
WINDOW 123 0 0 Left 0
WINDOW 39 0 0 Left 0
SYMATTR InstName V1
SYMATTR Value SINE(0 200m 10k 0 0 0)
SYMBOL res 192 80 R90
WINDOW 0 0 56 VBottom 2
WINDOW 3 32 56 VTop 2
SYMATTR InstName R1
SYMATTR Value 100
SYMBOL res 512 -64 R0
SYMATTR InstName R3
SYMATTR Value 100k
SYMBOL Contrib\\Toshiba\\bjt\\TMBT3904 640 48 R0
SYMATTR InstName U1
SYMBOL res 688 176 R0
SYMATTR InstName R2
SYMATTR Value 100
SYMBOL res 512 176 R0
SYMATTR InstName R4
SYMATTR Value 39k
SYMBOL res 224 176 R0
SYMATTR InstName R5
SYMATTR Value 10
SYMBOL cap 592 32 R0
SYMATTR InstName C2
SYMATTR Value 10p
SYMBOL res 688 -64 R0
SYMATTR InstName R6
SYMATTR Value 560
SYMBOL cap 864 16 R90
WINDOW 0 0 32 VBottom 2
WINDOW 3 32 32 VTop 2
SYMATTR InstName C3
SYMATTR Value 10µ
SYMBOL res 912 -64 R0
SYMATTR InstName R7
SYMATTR Value 100k
SYMBOL Contrib\\Toshiba\\bjt\\TMBT3904 1040 48 R0
SYMATTR InstName U2
SYMBOL res 1088 176 R0
SYMATTR InstName R8
SYMATTR Value 100
SYMBOL res 912 176 R0
SYMATTR InstName R9
SYMATTR Value 39k
SYMBOL cap 992 32 R0
SYMATTR InstName C4
SYMATTR Value 10p
SYMBOL res 1088 -64 R0
SYMATTR InstName R10
SYMATTR Value 560
SYMBOL cap 1264 16 R90
WINDOW 0 0 32 VBottom 2
WINDOW 3 32 32 VTop 2
SYMATTR InstName C5
SYMATTR Value 10µ
SYMBOL res 1312 -64 R0
SYMATTR InstName R11
SYMATTR Value 100k
SYMBOL Contrib\\Toshiba\\bjt\\TMBT3904 1440 48 R0
SYMATTR InstName U3
SYMBOL res 1488 176 R0
SYMATTR InstName R12
SYMATTR Value 100
SYMBOL res 1312 176 R0
SYMATTR InstName R13
SYMATTR Value 39k
SYMBOL cap 1392 32 R0
SYMATTR InstName C6
SYMATTR Value 10p
SYMBOL res 1488 -64 R0
SYMATTR InstName R14
SYMATTR Value 560
SYMBOL cap 1664 16 R90
WINDOW 0 0 32 VBottom 2
WINDOW 3 32 32 VTop 2
SYMATTR InstName C7
SYMATTR Value 10µ
SYMBOL res 1712 176 R0
SYMATTR InstName R15
SYMATTR Value 1k
SYMBOL voltage 1104 -96 R180
WINDOW 0 24 96 Left 2
WINDOW 3 24 16 Left 2
SYMATTR InstName V2
SYMATTR Value 12
SYMBOL cap 528 80 R90
WINDOW 0 0 32 VBottom 2
WINDOW 3 32 32 VTop 2
SYMATTR InstName C1
SYMATTR Value 10µ
SYMBOL res 960 -288 R90
WINDOW 0 0 56 VBottom 2
WINDOW 3 32 56 VTop 2
SYMATTR InstName R16
SYMATTR Value 1k
TEXT -50 376 Left 2 !.tran .001
