Version 4
SHEET 1 880 680
WIRE 496 -288 416 -288
WIRE 560 -288 496 -288
WIRE 416 -240 416 -288
WIRE 416 -144 416 -160
WIRE 416 -144 400 -144
WIRE 416 -128 416 -144
WIRE 560 -128 560 -288
WIRE 336 -80 336 -144
WIRE 496 -32 480 -32
WIRE 560 -32 560 -48
WIRE 656 -32 560 -32
WIRE 784 -32 720 -32
WIRE 560 -16 560 -32
WIRE 48 32 -32 32
WIRE 304 32 128 32
WIRE 336 32 304 32
WIRE 416 32 416 -48
WIRE 416 32 400 32
WIRE 480 32 480 -32
WIRE 480 32 416 32
WIRE 496 32 480 32
WIRE 560 96 560 80
WIRE 688 96 560 96
WIRE 416 112 416 32
WIRE 560 112 560 96
WIRE 784 112 784 48
WIRE 304 128 304 32
WIRE -32 144 -32 32
WIRE 688 160 688 96
WIRE -32 304 -32 224
WIRE 304 304 304 208
WIRE 304 304 -32 304
WIRE 416 304 416 192
WIRE 416 304 304 304
WIRE 560 304 560 192
WIRE 560 304 416 304
WIRE 688 304 688 224
WIRE 688 304 560 304
WIRE 416 336 416 304
FLAG 416 336 0
FLAG 336 -80 0
FLAG 784 112 0
FLAG 496 -368 0
SYMBOL voltage -32 128 R0
WINDOW 123 24 124 Left 2
WINDOW 39 0 0 Left 0
SYMATTR Value2 AC 100m 0
SYMATTR InstName V1
SYMATTR Value SINE(0 100m 100k 0 0 0)
SYMBOL cap 400 16 R90
WINDOW 0 0 32 VBottom 2
WINDOW 3 32 32 VTop 2
SYMATTR InstName C1
SYMATTR Value 10µ
SYMBOL Contrib\\Toshiba\\bjt\\TMBT3904 496 -16 R0
SYMATTR InstName U1
SYMBOL res 400 96 R0
SYMATTR InstName R1
SYMATTR Value 8200
SYMBOL res 400 -144 R0
SYMATTR InstName R2
SYMATTR Value 33k
SYMBOL res 544 -144 R0
SYMATTR InstName R3
SYMATTR Value 6800
SYMBOL res 544 96 R0
SYMATTR InstName R4
SYMATTR Value 560
SYMBOL cap 560 -48 R90
WINDOW 0 0 32 VBottom 2
WINDOW 3 32 32 VTop 2
SYMATTR InstName C2
SYMATTR Value 10p
SYMBOL cap 672 160 R0
SYMATTR InstName C3
SYMATTR Value 10µ
SYMBOL res 400 -256 R0
SYMATTR InstName R5
SYMATTR Value 56k
SYMBOL cap 720 -48 R90
WINDOW 0 0 32 VBottom 2
WINDOW 3 32 32 VTop 2
SYMATTR InstName C4
SYMATTR Value 10µ
SYMBOL cap 400 -160 R90
WINDOW 0 0 32 VBottom 2
WINDOW 3 32 32 VTop 2
SYMATTR InstName C5
SYMATTR Value 10µ
SYMBOL res 768 -48 R0
SYMATTR InstName R6
SYMATTR Value 22k
SYMBOL voltage 496 -272 R180
WINDOW 0 24 96 Left 2
WINDOW 3 24 16 Left 2
SYMATTR InstName V2
SYMATTR Value 12
SYMBOL res 288 112 R0
SYMATTR InstName R7
SYMATTR Value 100
SYMBOL res 144 16 R90
WINDOW 0 0 56 VBottom 2
WINDOW 3 32 56 VTop 2
SYMATTR InstName R8
SYMATTR Value 1k
TEXT -64 360 Left 2 !.ac dec 5u 1 10Meg
